*** 110030039 Homework 1

.protect
.lib `cic018.l' tt
.temp 25
.unprotect
.option post

****Source****
vdd vdd 0 1.8
vg vg 0 vin
.param vin=0

**** Variable parameters / devices ****

.param l=.3u

.param n=4.32
.param w=1.8u
.param m=1

Mp vout vg vdd vdd p_18 w=n*w*m l=l 
Mn vout vg 0 0 n_18 w=w*m l=l 

C1 vout 0 0.1p

**** Analisis ****

.dc vin 0 1.8 .1m

.alter
.lib `cic018.l' FF 
.temp -40

.alter
.lib `cic018.l' SS 
.temp 125

.alter
.lib `cic018.l' SF
.temp 25

.alter
.lib `cic018.l' FS
.temp 25

.end
